
  -OEChem-03052509243D

 18 18  0     0  0  0  0  0  0999 V2000
   -1.9540    7.1720   17.3040 C   0  0  0  0  0  0  0  0  0  0  0  0
   -3.1730    6.9120   16.7240 C   0  0  0  0  0  0  0  0  0  0  0  0
   -3.3760    5.8560   15.8480 C   0  0  0  0  0  0  0  0  0  0  0  0
   -2.3520    4.8690   15.7140 C   0  0  0  0  0  0  0  0  0  0  0  0
   -1.1280    5.0340   16.3620 C   0  0  0  0  0  0  0  0  0  0  0  0
   -0.9340    6.2050   17.1530 C   0  0  0  0  0  0  0  0  0  0  0  0
   -1.8500    8.3110   18.2090 C   0  0  0  0  0  0  0  0  0  0  0  0
   -2.7760    9.2840   18.4800 N   0  3  0  0  0  0  0  0  0  0  0  0
   -0.5870    8.6090   18.7270 N   0  0  0  0  0  0  0  0  0  0  0  0
   -3.9890    7.6010   16.9170 H   0  0  0  0  0  0  0  0  0  0  0  0
   -4.3430    5.7110   15.3760 H   0  0  0  0  0  0  0  0  0  0  0  0
   -2.5780    3.9880   15.1200 H   0  0  0  0  0  0  0  0  0  0  0  0
   -0.3870    4.2440   16.2860 H   0  0  0  0  0  0  0  0  0  0  0  0
   -0.0160    6.2240   17.7340 H   0  0  0  0  0  0  0  0  0  0  0  0
   -3.7290    9.1400   18.1720 H   0  0  0  0  0  0  0  0  0  0  0  0
   -2.5180   10.1890   18.8540 H   0  0  0  0  0  0  0  0  0  0  0  0
    0.2580    8.1380   18.4300 H   0  0  0  0  0  0  0  0  0  0  0  0
   -0.5220    9.4420   19.2990 H   0  0  0  0  0  0  0  0  0  0  0  0
  4 12  1  0  0  0  0
  3 11  1  0  0  0  0
  3  4  2  0  0  0  0
  4  5  1  0  0  0  0
  2  3  1  0  0  0  0
  5 13  1  0  0  0  0
  5  6  2  0  0  0  0
  2 10  1  0  0  0  0
  1  2  2  0  0  0  0
  1  6  1  0  0  0  0
  6 14  1  0  0  0  0
  1  7  1  0  0  0  0
  8 15  1  0  0  0  0
  7  8  2  0  0  0  0
  7  9  1  0  0  0  0
  9 17  1  0  0  0  0
  8 16  1  0  0  0  0
  9 18  1  0  0  0  0
M  CHG  1   8   1
M  END
$$$$
